@<TRIPOS>MOLECULE
*****
 11 10 0 0 0
SMALL
GASTEIGER

@<TRIPOS>ATOM
      1 C          24.2370   -9.6035   -0.0426 C.3     1  UNL1       -0.0552
      2 C          25.7429   -9.3363    0.0000 C.3     1  UNL1        0.0420
      3 C          26.4874  -10.6498   -0.0170 C.2     1  UNL1        0.3044
      4 O          25.7982  -11.8213   -0.0629 O.3     1  UNL1       -0.4806
      5 O          27.6974  -10.6599   -0.0078 O.2     1  UNL1       -0.2510
      6 H          23.9016   -9.6630   -1.1002 H       1  UNL1        0.0235
      7 H          24.0170  -10.5644    0.4702 H       1  UNL1        0.0235
      8 H          23.6999   -8.7769    0.4702 H       1  UNL1        0.0235
      9 H          26.0424   -8.7351   -0.8850 H       1  UNL1        0.0375
     10 H          25.9995   -8.7829    0.9285 H       1  UNL1        0.0375
     11 H          26.2972  -12.7013   -0.0893 H       1  UNL1        0.2951
@<TRIPOS>BOND
     1     1     2    1
     2     2     3    1
     3     3     4    1
     4     3     5    2
     5     6     1    1
     6     7     1    1
     7     8     1    1
     8     9     2    1
     9    10     2    1
    10    11     4    1
