@<TRIPOS>MOLECULE
*****
 10 9 0 0 0
SMALL
GASTEIGER

@<TRIPOS>ATOM
      1 C          19.3081  -12.3133   -0.6663 C.3     1  UNL1       -0.0602
      2 C          18.8889  -11.3564    0.4516 C.3     1  UNL1       -0.0160
      3 C          19.5673  -10.0223    0.2522 C.2     1  UNL1        0.0415
      4 O          20.4124   -9.8394   -0.7975 O.co2   1  UNL1       -0.5498
      5 O          19.3452   -9.1102    1.0159 O.co2   1  UNL1       -0.5498
      6 H          18.6298  -12.1850   -1.5368 H       1  UNL1        0.0233
      7 H          20.3518  -12.0882   -0.9739 H       1  UNL1        0.0233
      8 H          19.2460  -13.3603   -0.2997 H       1  UNL1        0.0233
      9 H          17.7874  -11.2131    0.4294 H       1  UNL1        0.0322
     10 H          19.1886  -11.7752    1.4360 H       1  UNL1        0.0322
@<TRIPOS>UNITY_ATOM_ATTR
4 1
charge -1
@<TRIPOS>BOND
     1     1     2    1
     2     2     3    1
     3     3     4   ar
     4     3     5   ar
     5     6     1    1
     6     7     1    1
     7     8     1    1
     8     9     2    1
     9    10     2    1
