@<TRIPOS>MOLECULE
*****
 10 9 0 0 0
SMALL
GASTEIGER

@<TRIPOS>ATOM
      1 C          11.9135  -11.4302   -0.0439 C.3     1  UNL1       -0.0550
      2 C          11.7273   -9.9124    0.0000 C.3     1  UNL1        0.0464
      3 C          13.0791   -9.2400   -0.0182 C.2     1  UNL1        0.3557
      4 O          14.2116   -9.9914   -0.0681 O.co2   1  UNL1       -0.2464
      5 O          13.1545   -8.0324   -0.0068 O.co2   1  UNL1       -0.2464
      6 H          11.9549  -11.7674   -1.1018 H       1  UNL1        0.0235
      7 H          12.8613  -11.7016    0.4685 H       1  UNL1        0.0235
      8 H          11.0594  -11.9227    0.4685 H       1  UNL1        0.0235
      9 H          11.1419   -9.5804   -0.8840 H       1  UNL1        0.0376
     10 H          11.1895   -9.6270    0.9294 H       1  UNL1        0.0376
@<TRIPOS>BOND
     1     1     2    1
     2     2     3    1
     3     3     4   ar
     4     3     5   ar
     5     6     1    1
     6     7     1    1
     7     8     1    1
     8     9     2    1
     9    10     2    1
