@<TRIPOS>MOLECULE
*****
 41 41 0 0 0
SMALL
GASTEIGER

@<TRIPOS>ATOM
      1 C           1.0466    1.0631   -0.4160 C.3     1  UNL11       0.0000
      2 C           1.5197    1.4210    0.8492 C.3     1  UNL11       0.0000
      3 C           1.6447    0.4576    1.8824 C.3     1  UNL11       0.0000
      4 C           1.2439   -0.8689    1.5890 C.3     1  UNL11       0.0000
      5 C           0.7619   -1.2143    0.3224 C.3     1  UNL11       0.0000
      6 C           0.6745   -0.2526   -0.6816 C.3     1  UNL11       0.0000
      7 N           2.2501    0.7989    3.1529 N.2     1  UNL11       0.0000
      8 C           2.1740    2.0224    3.6178 C.2     1  UNL11       0.0000
      9 C           2.8521    2.5548    4.8342 C.2     1  UNL11       0.0000
     10 O           3.4544    1.8063    5.5806 O.2     1  UNL11       0.0000
     11 N           2.8352    3.8977    5.0928 N.am    1  UNL11       0.0000
     12 C           3.6234    4.5035    6.1704 C.3     1  UNL11       0.0000
     13 C           2.7428    5.1746    7.1980 C.2     1  UNL11       0.0000
     14 O           3.2602    5.6575    8.1977 O.2     1  UNL11       0.0000
     15 O           1.4010    5.2567    7.0133 O.3     1  UNL11       0.0000
     16 C           0.5520    5.8682    7.9124 C.3     1  UNL11       0.0000
     17 C           4.6670    5.5126    5.5967 C.3     1  UNL11       0.0000
     18 C           5.6061    4.8291    4.5914 C.3     1  UNL11       0.0000
     19 C           4.0183    6.7481    4.9431 C.3     1  UNL11       0.0000
     20 IN          3.4602   -0.7882    3.9854 In      1  UNL11       0.0000
     21 CL          4.4982   -1.7671    2.0753 Cl      1  UNL11       0.0000
     22 CL          2.1590   -2.4952    5.0263 Cl      1  UNL11       0.0000
     23 CL          5.3567   -0.2465    5.3438 Cl      1  UNL11       0.0000
     24 H           0.9910    1.8073   -1.1992 H       1  UNL11       0.0000
     25 H           1.8333    2.4453    0.9856 H       1  UNL11       0.0000
     26 H           1.3011   -1.6539    2.3279 H       1  UNL11       0.0000
     27 H           0.4710   -2.2365    0.1132 H       1  UNL11       0.0000
     28 H           0.3241   -0.5274   -1.6684 H       1  UNL11       0.0000
     29 H           1.5742    2.7613    3.0919 H       1  UNL11       0.0000
     30 H           2.2918    4.5179    4.4737 H       1  UNL11       0.0000
     31 H           4.1918    3.7205    6.7154 H       1  UNL11       0.0000
     32 H          -0.4821    5.8443    7.5135 H       1  UNL11       0.0000
     33 H           0.8532    6.9282    8.0619 H       1  UNL11       0.0000
     34 H           0.5783    5.3340    8.8861 H       1  UNL11       0.0000
     35 H           5.2923    5.8771    6.4434 H       1  UNL11       0.0000
     36 H           5.0427    4.4689    3.7041 H       1  UNL11       0.0000
     37 H           6.1184    3.9660    5.0673 H       1  UNL11       0.0000
     38 H           6.3810    5.5458    4.2455 H       1  UNL11       0.0000
     39 H           3.3964    6.4692    4.0691 H       1  UNL11       0.0000
     40 H           4.8046    7.4513    4.5998 H       1  UNL11       0.0000
     41 H           3.3840    7.2905    5.6769 H       1  UNL11       0.0000
@<TRIPOS>BOND
     1     1     2   ar
     2     2     3   ar
     3     3     4   ar
     4     4     5   ar
     5     5     6   ar
     6     1     6   ar
     7     3     7    1
     8     7     8    2
     9     8     9    1
    10     9    10    2
    11     9    11   am
    12    13    14    2
    13    13    15    1
    14    15    16    1
    15    12    17    1
    16    17    18    1
    17    17    19    1
    18     7    20    1
    19    20    21    1
    20    20    22    1
    21    20    23    1
    22    12    13    1
    23    12    11    1
    24     1    24    1
    25     2    25    1
    26     4    26    1
    27     5    27    1
    28     6    28    1
    29     8    29    1
    30    11    30    1
    31    12    31    1
    32    16    32    1
    33    16    33    1
    34    16    34    1
    35    17    35    1
    36    18    36    1
    37    18    37    1
    38    18    38    1
    39    19    39    1
    40    19    40    1
    41    19    41    1
