@<TRIPOS>MOLECULE
*****
 17 16 0 0 0
SMALL
GASTEIGER

@<TRIPOS>ATOM
      1 N          15.8258   -6.8964   -1.1575 N.4     1  UNL1        0.2347
      2 C          16.9648   -6.5011   -1.9986 C.3     1  UNL1       -0.0421
      3 C          15.1216   -5.6939   -0.6898 C.3     1  UNL1       -0.0421
      4 C          14.9038   -7.7304   -1.9417 C.3     1  UNL1       -0.0421
      5 C          16.3134   -7.6600    0.0000 C.3     1  UNL1       -0.0421
      6 H          16.6851   -6.5982   -3.0695 H       1  UNL1        0.0778
      7 H          17.2367   -5.4460   -1.7811 H       1  UNL1        0.0778
      8 H          17.8319   -7.1610   -1.7811 H       1  UNL1        0.0778
      9 H          14.7759   -5.1036   -1.5654 H       1  UNL1        0.0778
     10 H          14.2452   -5.9936   -0.0760 H       1  UNL1        0.0778
     11 H          15.8117   -5.0762   -0.0760 H       1  UNL1        0.0778
     12 H          15.0862   -7.5654   -3.0252 H       1  UNL1        0.0778
     13 H          15.0736   -8.8007   -1.6965 H       1  UNL1        0.0778
     14 H          13.8558   -7.4544   -1.6965 H       1  UNL1        0.0778
     15 H          16.8801   -8.5475   -0.3544 H       1  UNL1        0.0778
     16 H          16.9794   -7.0164    0.6139 H       1  UNL1        0.0778
     17 H          15.4493   -7.9933    0.6139 H       1  UNL1        0.0778
@<TRIPOS>UNITY_ATOM_ATTR
1 1
charge 1
@<TRIPOS>BOND
     1     1     2    1
     2     1     3    1
     3     1     4    1
     4     1     5    1
     5     6     2    1
     6     7     2    1
     7     8     2    1
     8     9     3    1
     9    10     3    1
    10    11     3    1
    11    12     4    1
    12    13     4    1
    13    14     4    1
    14    15     5    1
    15    16     5    1
    16    17     5    1
